Version 4
SHEET 1 952 680
WIRE 400 -176 -208 -176
WIRE 752 -176 496 -176
WIRE 752 -144 752 -176
WIRE -208 -80 -208 -176
WIRE 752 -32 752 -64
WIRE -208 64 -208 -16
WIRE 64 64 -208 64
WIRE 496 64 496 -176
WIRE 496 64 288 64
WIRE -208 80 -208 64
WIRE 640 96 528 96
WIRE 768 96 640 96
WIRE 64 128 -80 128
WIRE 528 128 528 96
WIRE 528 128 288 128
WIRE 640 128 640 96
WIRE 768 128 768 96
WIRE 64 192 -416 192
WIRE 464 192 288 192
WIRE 528 192 464 192
WIRE 528 240 528 192
WIRE 640 240 640 208
WIRE 640 240 528 240
WIRE 64 256 -192 256
WIRE 400 256 400 -176
WIRE 400 256 288 256
WIRE 640 256 640 240
WIRE -80 368 -80 128
WIRE 464 368 464 192
WIRE 464 368 -80 368
WIRE -192 448 -192 256
WIRE 496 448 496 64
WIRE 496 448 -192 448
WIRE 768 448 768 208
WIRE 768 448 496 448
FLAG -208 80 0
FLAG -416 192 Vout
FLAG 640 320 0
FLAG 752 -32 0
SYMBOL Misc\\NE555 176 160 R0
SYMATTR InstName U1
SYMBOL cap -224 -80 R0
SYMATTR InstName C1
SYMATTR Value 0.01µ
SYMBOL diode 512 128 R0
SYMATTR InstName D1
SYMBOL res 624 112 R0
SYMATTR InstName R1
SYMATTR Value 10k
SYMBOL res 752 112 R0
SYMATTR InstName R2
SYMATTR Value 10k
SYMBOL cap 624 256 R0
SYMATTR InstName C2
SYMATTR Value 0.1µ
SYMBOL voltage 752 -160 R0
WINDOW 123 0 0 Left 0
WINDOW 39 0 0 Left 0
SYMATTR InstName V1
SYMATTR Value 10
TEXT 848 32 Left 2 !.tran 5m
