Version 4
SHEET 1 912 680
WIRE -160 -240 -192 -240
WIRE -32 -240 -80 -240
WIRE 160 -112 112 -112
WIRE -304 -96 -336 -96
WIRE -192 -96 -192 -240
WIRE -192 -96 -224 -96
WIRE -160 -96 -192 -96
WIRE 272 -96 224 -96
WIRE 368 -96 272 -96
WIRE 512 -96 448 -96
WIRE 560 -96 512 -96
WIRE 704 -96 640 -96
WIRE -32 -80 -32 -240
WIRE -32 -80 -96 -80
WIRE 16 -80 -32 -80
WIRE 160 -80 16 -80
WIRE -160 -64 -208 -64
WIRE -336 -32 -336 -96
WIRE -208 -16 -208 -64
WIRE 112 32 112 -112
WIRE 144 32 112 32
WIRE 272 32 272 -96
WIRE 272 32 224 32
WIRE 112 64 112 32
WIRE 512 64 512 -96
WIRE 576 64 512 64
WIRE -480 80 -480 48
WIRE -336 80 -336 48
WIRE 704 80 704 -96
WIRE 704 80 640 80
WIRE 880 80 880 64
WIRE 880 80 704 80
WIRE 576 96 512 96
WIRE -480 112 -480 80
WIRE 240 144 224 144
WIRE 112 160 112 144
WIRE 144 160 144 144
WIRE 144 160 112 160
WIRE 368 208 272 208
WIRE 512 208 512 96
WIRE 512 208 448 208
WIRE 576 208 512 208
WIRE 720 208 656 208
WIRE 720 240 720 208
WIRE 112 272 112 160
WIRE 144 272 112 272
WIRE 240 288 240 144
WIRE 240 288 208 288
WIRE 272 288 272 208
WIRE 272 288 240 288
WIRE 0 304 -96 304
WIRE 144 304 0 304
WIRE -96 416 -96 384
FLAG 720 240 0
FLAG -480 80 0
FLAG -480 -32 +Vcc
FLAG 608 48 +Vcc
FLAG -480 192 -Vcc
FLAG 608 112 -Vcc
FLAG 880 64 Vout
FLAG 176 256 +Vcc
FLAG 192 -128 +Vcc
FLAG 192 -64 -Vcc
FLAG 176 320 -Vcc
FLAG -336 80 0
FLAG -208 -16 0
FLAG -128 -112 +Vcc
FLAG -128 -48 -Vcc
FLAG -96 416 0
FLAG 0 304 VIn1
FLAG 16 -80 Vin2
SYMBOL LM741 608 16 R0
SYMATTR InstName U1
SYMBOL res 656 -112 R90
WINDOW 0 0 56 VBottom 2
WINDOW 3 32 56 VTop 2
SYMATTR InstName R1
SYMATTR Value 270k
SYMBOL res 464 -112 R90
WINDOW 0 0 56 VBottom 2
WINDOW 3 32 56 VTop 2
SYMATTR InstName R2
SYMATTR Value 10k
SYMBOL res 464 192 R90
WINDOW 0 0 56 VBottom 2
WINDOW 3 32 56 VTop 2
SYMATTR InstName R3
SYMATTR Value 10k
SYMBOL res 672 192 R90
WINDOW 0 0 56 VBottom 2
WINDOW 3 32 56 VTop 2
SYMATTR InstName R4
SYMATTR Value 267.67k
SYMBOL voltage -336 -48 R0
WINDOW 123 24 124 Left 2
WINDOW 39 0 0 Left 2
SYMATTR Value2 AC 10m 0
SYMATTR InstName V1
SYMATTR Value SINE(0 20m 1k)
SYMBOL voltage -480 -48 R0
WINDOW 123 0 0 Left 2
WINDOW 39 0 0 Left 2
SYMATTR InstName V2
SYMATTR Value 15
SYMBOL voltage -480 96 R0
WINDOW 123 0 0 Left 2
WINDOW 39 0 0 Left 2
SYMATTR InstName V3
SYMATTR Value 15
SYMBOL LM741 192 -160 R0
SYMATTR InstName U2
SYMBOL LM741 176 224 R0
SYMATTR InstName U3
SYMBOL res 240 16 R90
WINDOW 0 0 56 VBottom 2
WINDOW 3 32 56 VTop 2
SYMATTR InstName R5
SYMATTR Value 470
SYMBOL res 240 128 R90
WINDOW 0 0 56 VBottom 2
WINDOW 3 32 56 VTop 2
SYMATTR InstName R6
SYMATTR Value 470
SYMBOL res 128 160 R180
WINDOW 0 36 76 Left 2
WINDOW 3 36 40 Left 2
SYMATTR InstName R7
SYMATTR Value 47
SYMBOL LM741 -128 -144 R0
SYMATTR InstName U4
SYMBOL res -208 -112 R90
WINDOW 0 0 56 VBottom 2
WINDOW 3 32 56 VTop 2
SYMATTR InstName R8
SYMATTR Value 10k
SYMBOL res -64 -256 R90
WINDOW 0 0 56 VBottom 2
WINDOW 3 32 56 VTop 2
SYMATTR InstName R9
SYMATTR Value 10k
SYMBOL voltage -96 288 R0
WINDOW 123 24 124 Left 2
WINDOW 39 0 0 Left 2
SYMATTR Value2 AC 10m 0
SYMATTR InstName V4
SYMATTR Value SINE(0 10m 1k)
TEXT 736 -96 Left 2 !.op
TEXT 736 -64 Left 2 !.ac list 1k
