Version 4
SHEET 1 880 680
WIRE 80 -16 32 -16
WIRE 192 0 144 0
WIRE 288 0 192 0
WIRE 432 0 368 0
WIRE 480 0 432 0
WIRE 624 0 560 0
WIRE 80 16 -176 16
WIRE -176 128 -176 16
WIRE -112 128 -176 128
WIRE 32 128 32 -16
WIRE 64 128 32 128
WIRE 192 128 192 0
WIRE 192 128 144 128
WIRE -176 160 -176 128
WIRE 32 160 32 128
WIRE 432 160 432 0
WIRE 496 160 432 160
WIRE -560 176 -560 144
WIRE 624 176 624 0
WIRE 624 176 560 176
WIRE 800 176 800 160
WIRE 800 176 624 176
WIRE -176 192 -176 160
WIRE 496 192 432 192
WIRE -560 208 -560 176
WIRE 160 240 144 240
WIRE 32 256 32 240
WIRE 64 256 64 240
WIRE 64 256 32 256
WIRE -176 304 -176 272
WIRE 288 304 192 304
WIRE 432 304 432 192
WIRE 432 304 368 304
WIRE 496 304 432 304
WIRE 640 304 576 304
WIRE 640 336 640 304
WIRE 32 368 32 256
WIRE 64 368 32 368
WIRE 160 384 160 240
WIRE 160 384 128 384
WIRE 192 384 192 304
WIRE 192 384 160 384
WIRE -112 400 -112 128
WIRE 64 400 -112 400
FLAG 640 336 0
FLAG -560 176 0
FLAG -560 64 +Vcc
FLAG 528 144 +Vcc
FLAG -560 288 -Vcc
FLAG 528 208 -Vcc
FLAG 800 160 Vout
FLAG -176 160 Vin
FLAG 96 352 +Vcc
FLAG 112 -32 +Vcc
FLAG 112 32 -Vcc
FLAG 96 416 -Vcc
FLAG -176 304 0
SYMBOL LM741 528 112 R0
SYMATTR InstName U1
SYMBOL res 576 -16 R90
WINDOW 0 0 56 VBottom 2
WINDOW 3 32 56 VTop 2
SYMATTR InstName R1
SYMATTR Value 270k
SYMBOL res 384 -16 R90
WINDOW 0 0 56 VBottom 2
WINDOW 3 32 56 VTop 2
SYMATTR InstName R2
SYMATTR Value 10k
SYMBOL res 384 288 R90
WINDOW 0 0 56 VBottom 2
WINDOW 3 32 56 VTop 2
SYMATTR InstName R3
SYMATTR Value 10k
SYMBOL res 592 288 R90
WINDOW 0 0 56 VBottom 2
WINDOW 3 32 56 VTop 2
SYMATTR InstName R4
SYMATTR Value 267.67k
SYMBOL voltage -176 176 R0
WINDOW 123 24 124 Left 2
WINDOW 39 0 0 Left 2
SYMATTR Value2 AC 20m 0
SYMATTR InstName V1
SYMATTR Value SINE(0 20m 1k)
SYMBOL voltage -560 48 R0
WINDOW 123 0 0 Left 2
WINDOW 39 0 0 Left 2
SYMATTR InstName V2
SYMATTR Value 15
SYMBOL voltage -560 192 R0
WINDOW 123 0 0 Left 2
WINDOW 39 0 0 Left 2
SYMATTR InstName V3
SYMATTR Value 15
SYMBOL LM741 112 -64 R0
SYMATTR InstName U2
SYMBOL LM741 96 320 R0
SYMATTR InstName U3
SYMBOL res 160 112 R90
WINDOW 0 0 56 VBottom 2
WINDOW 3 32 56 VTop 2
SYMATTR InstName R5
SYMATTR Value 470
SYMBOL res 160 224 R90
WINDOW 0 0 56 VBottom 2
WINDOW 3 32 56 VTop 2
SYMATTR InstName R6
SYMATTR Value 470
SYMBOL res 48 256 R180
WINDOW 0 36 76 Left 2
WINDOW 3 36 40 Left 2
SYMATTR InstName R7
SYMATTR Value 47
TEXT 656 0 Left 2 !.op
TEXT 656 32 Left 2 !.ac list 1k
