Version 4
SHEET 1 880 680
WIRE 80 -128 -16 -128
WIRE 192 -128 80 -128
WIRE -16 -80 -16 -128
WIRE 80 -32 80 -128
WIRE 192 -32 192 -128
WIRE 352 -32 192 -32
WIRE -16 32 -16 0
WIRE 192 64 192 -32
WIRE 352 96 352 -32
WIRE 80 112 80 48
WIRE 128 112 80 112
WIRE 352 176 352 96
WIRE -112 208 -144 208
WIRE 0 208 -32 208
WIRE 16 208 0 208
WIRE 80 208 80 112
WIRE 192 224 192 160
WIRE 272 224 192 224
WIRE 288 224 272 224
WIRE 80 240 80 208
WIRE 416 272 352 272
WIRE 512 272 480 272
WIRE -144 304 -144 208
WIRE 352 320 352 272
WIRE 352 336 352 320
WIRE 512 336 512 272
WIRE -144 480 -144 384
WIRE 80 480 80 320
WIRE 80 480 -144 480
WIRE 352 480 352 416
WIRE 352 480 80 480
WIRE 512 480 512 416
WIRE 512 480 352 480
WIRE 80 512 80 480
FLAG 80 512 0
FLAG -16 32 0
FLAG 352 96 Vc
FLAG 272 224 Vb
FLAG 352 320 Ve
FLAG 512 272 Vout
FLAG 0 208 Vi
SYMBOL npn 128 64 R0
WINDOW 0 56 32 Left 2
WINDOW 3 56 68 Left 2
SYMATTR InstName Q1
SYMBOL npn 288 176 R0
WINDOW 0 56 32 Left 2
WINDOW 3 56 68 Left 2
SYMATTR InstName Q2
SYMBOL voltage -144 288 R0
WINDOW 123 24 124 Left 2
WINDOW 39 0 0 Left 0
SYMATTR InstName V1
SYMATTR Value SINE(0 100m 1k)
SYMATTR Value2 AC 100m 0
SYMBOL voltage -16 -96 R0
WINDOW 123 0 0 Left 0
WINDOW 39 0 0 Left 0
SYMATTR InstName V2
SYMATTR Value 10
SYMBOL res 64 -48 R0
WINDOW 0 36 40 Left 2
WINDOW 3 36 76 Left 2
SYMATTR InstName R1
SYMATTR Value 25.953704k
SYMBOL res 64 224 R0
WINDOW 0 36 40 Left 2
WINDOW 3 36 76 Left 2
SYMATTR InstName R2
SYMATTR Value 47k
SYMBOL res 336 320 R0
WINDOW 0 36 40 Left 2
WINDOW 3 36 76 Left 2
SYMATTR InstName R3
SYMATTR Value 3.9k
SYMBOL res 496 320 R0
WINDOW 0 36 40 Left 2
WINDOW 3 36 76 Left 2
SYMATTR InstName R4
SYMATTR Value 5.6k
SYMBOL res -16 192 R90
WINDOW 0 0 56 VBottom 2
WINDOW 3 32 56 VTop 2
SYMATTR InstName R5
SYMATTR Value 10k
SYMBOL cap 480 256 R90
WINDOW 0 0 32 VBottom 2
WINDOW 3 32 32 VTop 2
SYMATTR InstName C1
SYMATTR Value 10µ
SYMBOL cap 80 192 R90
WINDOW 0 0 32 VBottom 2
WINDOW 3 32 32 VTop 2
SYMATTR InstName C2
SYMATTR Value 10µ
TEXT 416 40 Left 2 !.ac list 1k
