Version 4
SHEET 1 880 680
WIRE -80 128 -112 128
WIRE 32 128 0 128
WIRE 96 128 32 128
WIRE 576 144 160 144
WIRE -112 160 -112 128
WIRE 96 160 48 160
WIRE 576 160 576 144
WIRE 48 192 48 160
WIRE -464 208 -464 176
WIRE -464 240 -464 208
WIRE 32 320 32 128
WIRE 208 320 32 320
WIRE 336 320 288 320
WIRE 576 320 576 240
WIRE 576 320 336 320
WIRE 336 368 336 320
WIRE 336 464 336 448
FLAG -464 208 0
FLAG -112 240 0
FLAG 336 464 0
FLAG 48 192 0
FLAG 128 112 +Vcc
FLAG 128 176 -Vcc
FLAG -464 96 +Vcc
FLAG -464 320 -Vcc
SYMBOL Opamps\\LM741 128 80 R0
SYMATTR InstName U1
SYMATTR SpiceModel ""
SYMBOL res 560 144 R0
SYMATTR InstName RL
SYMATTR Value 5.6k
SYMBOL res 320 352 R0
SYMATTR InstName R2
SYMATTR Value 100
SYMBOL res 304 304 R90
WINDOW 0 0 56 VBottom 2
WINDOW 3 32 56 VTop 2
SYMATTR InstName R3
SYMATTR Value 47k
SYMBOL res 16 112 R90
WINDOW 0 0 56 VBottom 2
WINDOW 3 32 56 VTop 2
SYMATTR InstName R4
SYMATTR Value 47k
SYMBOL voltage -112 144 R0
WINDOW 0 -50 15 Left 2
WINDOW 3 -68 96 Left 2
WINDOW 123 -68 124 Left 2
WINDOW 39 0 0 Left 2
SYMATTR InstName Vs
SYMATTR Value ""
SYMATTR Value2 AC {V} 0
SYMBOL voltage -464 80 R0
SYMATTR InstName V2
SYMATTR Value 15
SYMBOL voltage -464 224 R0
SYMATTR InstName V3
SYMATTR Value 15
TEXT -112 -72 Left 2 ;CURRENT CONTROLLED CURRENT SOURCE(CCCS)
TEXT -264 -24 Left 2 !.step param V 50m 200m 50m
TEXT -264 16 Left 2 !.ac list 1k
