Version 4
SHEET 1 880 680
WIRE 80 -208 -160 -208
WIRE 208 -208 80 -208
WIRE -160 -144 -160 -208
WIRE 80 -96 80 -208
WIRE 208 -96 208 -208
WIRE 384 0 288 0
WIRE 480 0 384 0
WIRE 560 0 480 0
WIRE 384 32 384 0
WIRE 0 64 -80 64
WIRE -80 80 -80 64
WIRE 384 160 384 112
WIRE 384 160 288 160
WIRE 496 160 384 160
WIRE 384 176 384 160
WIRE 496 176 496 160
WIRE -80 192 -80 160
WIRE 0 192 -80 192
WIRE 384 256 384 240
WIRE 384 256 288 256
WIRE 496 288 496 256
WIRE 144 384 144 352
FLAG -160 -64 0
FLAG 480 0 Vo
FLAG 496 288 0
FLAG 144 384 0
SYMBOL LM723 144 32 R0
SYMATTR InstName U1
SYMBOL res 368 16 R0
SYMATTR InstName R1
SYMATTR Value 2.7k
SYMBOL cap 368 176 R0
SYMATTR InstName C1
SYMATTR Value 100p
SYMBOL res -96 64 R0
SYMATTR InstName R2
SYMATTR Value 1.2k
SYMBOL voltage -160 -160 R0
WINDOW 123 0 0 Left 0
WINDOW 39 0 0 Left 0
SYMATTR InstName V1
SYMATTR Value 15
SYMBOL res 480 160 R0
SYMATTR InstName R4
SYMATTR Value 2.2k
TEXT 624 80 Left 2 !.op
