Version 4
SHEET 1 880 680
WIRE 352 -80 0 -80
WIRE 544 -80 432 -80
WIRE 800 64 800 16
WIRE 336 80 304 80
WIRE 544 96 544 -80
WIRE 544 96 400 96
WIRE -144 112 -192 112
WIRE 0 112 0 -80
WIRE 0 112 -80 112
WIRE 48 112 0 112
WIRE 144 112 112 112
WIRE 336 112 144 112
WIRE 800 112 800 64
WIRE 544 128 544 96
WIRE 544 160 544 128
WIRE 144 240 144 112
WIRE 304 256 304 80
WIRE 544 256 544 240
WIRE 544 256 304 256
WIRE 544 304 544 256
FLAG -192 192 0
FLAG 144 320 0
FLAG 544 384 0
FLAG 800 64 0
FLAG 544 128 Vo
FLAG 368 64 +Vcc
FLAG 368 128 -Vcc
FLAG 800 -64 +Vcc
FLAG 800 192 -Vcc
SYMBOL Opamps\\LM741 368 32 R0
SYMATTR InstName U1
SYMATTR SpiceModel ""
SYMBOL res 448 -96 R90
WINDOW 0 0 56 VBottom 2
WINDOW 3 32 56 VTop 2
SYMATTR InstName R1
SYMATTR Value 10k
SYMBOL res 160 336 R180
WINDOW 0 36 76 Left 2
WINDOW 3 36 40 Left 2
SYMATTR InstName R2
SYMATTR Value 10k
SYMBOL res 560 256 R180
WINDOW 0 36 76 Left 2
WINDOW 3 36 40 Left 2
SYMATTR InstName RA
SYMATTR Value 5.6k
SYMBOL res 560 400 R180
WINDOW 0 36 76 Left 2
WINDOW 3 36 40 Left 2
SYMATTR InstName RB
SYMATTR Value 10k
SYMBOL cap 112 96 R90
WINDOW 0 0 32 VBottom 2
WINDOW 3 32 32 VTop 2
SYMATTR InstName C1
SYMATTR Value 0.1µ
SYMBOL cap -80 96 R90
WINDOW 0 0 32 VBottom 2
WINDOW 3 32 32 VTop 2
SYMATTR InstName C2
SYMATTR Value 0.1µ
SYMBOL voltage -192 96 R0
WINDOW 123 24 124 Left 2
WINDOW 39 0 0 Left 2
SYMATTR InstName Vs
SYMATTR Value SINE(0 100m)
SYMATTR Value2 AC 100m 0
SYMBOL voltage 800 -80 R0
SYMATTR InstName V2
SYMATTR Value 15
SYMBOL voltage 800 96 R0
SYMATTR InstName V3
SYMATTR Value 15
TEXT 0 424 Left 2 !.ac lin 10k 100 1k
