Version 4
SHEET 1 880 680
WIRE 160 -112 -80 -112
WIRE 288 -112 160 -112
WIRE -80 -64 -80 -112
WIRE 160 0 160 -112
WIRE 288 0 288 -112
WIRE 512 96 368 96
WIRE 688 96 512 96
WIRE 512 128 512 96
WIRE 80 160 -64 160
WIRE 96 160 80 160
WIRE -64 192 -64 160
WIRE 432 256 368 256
WIRE 512 256 512 208
WIRE 512 256 432 256
WIRE 608 256 512 256
WIRE 432 272 432 256
WIRE -64 288 -64 272
WIRE 80 288 -64 288
WIRE 608 336 608 256
WIRE 432 352 432 336
WIRE 432 352 368 352
FLAG -80 16 0
FLAG 608 416 0
FLAG 224 448 0
FLAG 688 96 Vout
SYMBOL LM723 224 128 R0
SYMATTR InstName U1
SYMBOL voltage -80 -80 R0
SYMATTR InstName V1
SYMATTR Value 15
SYMBOL res -80 176 R0
SYMATTR InstName R1
SYMATTR Value 1.2k
SYMBOL res 496 112 R0
SYMATTR InstName R2
SYMATTR Value 2.7k
SYMBOL res 592 320 R0
SYMATTR InstName R4
SYMATTR Value 2.2k
SYMBOL cap 416 272 R0
SYMATTR InstName C1
SYMATTR Value 100p
TEXT -114 472 Left 2 !.tran 0.1m
