Version 4
SHEET 1 880 680
WIRE 320 -64 16 -64
WIRE 560 -64 384 -64
WIRE 256 80 48 80
WIRE 560 96 560 -64
WIRE 560 96 320 96
WIRE 592 96 560 96
WIRE 768 96 768 80
WIRE -176 112 -208 112
WIRE 16 112 16 -64
WIRE 16 112 -96 112
WIRE 80 112 16 112
WIRE 208 112 160 112
WIRE 256 112 208 112
WIRE 768 112 768 96
WIRE 560 128 560 96
WIRE 208 144 208 112
WIRE 48 288 48 80
WIRE 560 288 560 208
WIRE 560 288 48 288
WIRE 560 304 560 288
WIRE 560 432 560 384
FLAG -208 192 0
FLAG 208 208 0
FLAG 560 432 0
FLAG 768 96 0
FLAG 288 64 +Vcc
FLAG 288 128 -Vcc
FLAG 768 0 +Vcc
FLAG 768 192 -Vcc
FLAG 592 96 Vout
SYMBOL Opamps\\LM741 288 32 R0
SYMATTR InstName U1
SYMATTR SpiceModel ""
SYMBOL res 176 96 R90
WINDOW 0 0 56 VBottom 2
WINDOW 3 32 56 VTop 2
SYMATTR InstName R1
SYMATTR Value 4.7k
SYMBOL res -80 96 R90
WINDOW 0 0 56 VBottom 2
WINDOW 3 32 56 VTop 2
SYMATTR InstName R2
SYMATTR Value 4.7k
SYMBOL res 576 224 R180
WINDOW 0 36 76 Left 2
WINDOW 3 36 40 Left 2
SYMATTR InstName R3
SYMATTR Value 5.6k
SYMBOL res 576 400 R180
WINDOW 0 36 76 Left 2
WINDOW 3 36 40 Left 2
SYMATTR InstName R4
SYMATTR Value 10k
SYMBOL cap 192 144 R0
SYMATTR InstName C1
SYMATTR Value 0.1µ
SYMBOL cap 384 -80 R90
WINDOW 0 0 32 VBottom 2
WINDOW 3 32 32 VTop 2
SYMATTR InstName C2
SYMATTR Value 0.1µ
SYMBOL voltage -208 96 R0
WINDOW 0 -43 11 Left 2
WINDOW 123 24 124 Left 2
WINDOW 39 0 0 Left 2
SYMATTR InstName V1
SYMATTR Value SINE(0 100m)
SYMATTR Value2 AC 100m 0
SYMBOL voltage 768 -16 R0
SYMATTR InstName V2
SYMATTR Value 15
SYMBOL voltage 768 96 R0
SYMATTR InstName V3
SYMATTR Value 15
TEXT -24 -144 Left 2 !.ac lin 100 10 1k
