Version 4
SHEET 1 1364 680
WIRE 400 -64 -208 -64
WIRE 560 -64 400 -64
WIRE 736 -64 560 -64
WIRE 736 -48 736 -64
WIRE 560 -16 560 -64
WIRE 112 48 64 48
WIRE 400 48 400 -64
WIRE 400 48 336 48
WIRE 64 64 64 48
WIRE 112 112 0 112
WIRE 560 112 560 64
WIRE 560 112 336 112
WIRE 688 112 560 112
WIRE 112 176 -304 176
WIRE 368 176 336 176
WIRE 480 176 368 176
WIRE 480 192 480 176
WIRE 560 192 480 192
WIRE 688 192 688 176
WIRE 688 192 560 192
WIRE -208 240 -208 -64
WIRE 112 240 -208 240
WIRE 416 240 336 240
WIRE 560 240 560 192
WIRE 416 272 416 240
WIRE 0 320 0 112
WIRE 368 320 368 176
WIRE 368 320 0 320
WIRE 560 320 560 304
WIRE 416 352 416 336
FLAG 416 352 0
FLAG 560 320 0
FLAG 736 32 0
FLAG 64 64 0
FLAG -304 176 Vout
SYMBOL Misc\\NE555 224 144 R0
SYMATTR InstName U1
SYMBOL voltage 736 -64 R0
WINDOW 123 0 0 Left 0
WINDOW 39 0 0 Left 0
SYMATTR InstName V1
SYMATTR Value 5
SYMBOL res 544 -32 R0
SYMATTR InstName R1
SYMATTR Value 10k
SYMBOL res 544 96 R0
SYMATTR InstName R2
SYMATTR Value 10k
SYMBOL cap 544 240 R0
SYMATTR InstName C1
SYMATTR Value 0.072µ
SYMBOL cap 400 272 R0
SYMATTR InstName C2
SYMATTR Value 0.01µ
SYMBOL diode 672 112 R0
SYMATTR InstName D
TEXT -372 376 Left 2 !.tran 10m
TEXT 776 128 Left 2 !.model D D(Ron=0 Roff=100G Vfwd=0)
