Version 4
SHEET 1 880 680
WIRE 64 -16 -32 -16
WIRE 272 -16 128 -16
WIRE -32 160 -32 -16
WIRE -32 160 -160 160
WIRE 16 160 -32 160
WIRE 176 160 80 160
WIRE -336 176 -336 128
WIRE 352 176 352 -16
WIRE 352 176 240 176
WIRE 432 176 352 176
WIRE -160 192 -160 160
WIRE -32 192 -32 160
WIRE 16 192 16 160
WIRE 176 192 16 192
WIRE -336 224 -336 176
WIRE 80 256 80 160
WIRE 128 256 80 256
WIRE 80 288 80 256
WIRE 128 288 128 256
WIRE 240 288 128 288
WIRE 352 288 352 176
WIRE 352 288 320 288
WIRE -160 384 -160 272
WIRE -32 384 -32 256
WIRE -32 384 -160 384
WIRE 80 384 80 368
WIRE 80 384 -32 384
WIRE -32 432 -32 384
FLAG -336 48 +Vcc
FLAG -336 304 -Vcc
FLAG -336 176 0
FLAG 432 176 Vout
FLAG 208 144 +Vcc
FLAG 208 208 -Vcc
FLAG -32 432 0
SYMBOL Opamps\\LM741 208 112 R0
SYMATTR InstName U1
SYMBOL voltage -336 32 R0
SYMATTR InstName V1
SYMATTR Value 15V
SYMBOL voltage -336 208 R0
SYMATTR InstName V2
SYMATTR Value 15V
SYMBOL cap -48 192 R0
SYMATTR InstName C1
SYMATTR Value 0.1µ
SYMBOL cap 64 -32 M90
WINDOW 0 0 32 VBottom 2
WINDOW 3 32 32 VTop 2
SYMATTR InstName C2
SYMATTR Value 0.1µ
SYMBOL res -176 176 R0
SYMATTR InstName R
SYMATTR Value 100
SYMBOL res 64 272 R0
SYMATTR InstName R1
SYMATTR Value 1k
SYMBOL res 336 272 R90
WINDOW 0 0 56 VBottom 2
WINDOW 3 32 56 VTop 2
SYMATTR InstName R2
SYMATTR Value 1.98k
SYMBOL res 368 -32 R90
WINDOW 0 0 56 VBottom 2
WINDOW 3 32 56 VTop 2
SYMATTR InstName Rf
SYMATTR Value 100
TEXT -224 40 Left 2 !.tran 110m
