Version 4
SHEET 1 880 680
WIRE -16 -192 -320 -192
WIRE -16 -128 -16 -192
WIRE 32 -128 -16 -128
WIRE 144 -128 112 -128
WIRE -16 -96 -16 -128
WIRE 208 -64 160 -64
WIRE 416 -64 288 -64
WIRE -320 -48 -320 -192
WIRE -320 48 -320 32
WIRE -16 96 -16 -16
WIRE 48 96 -16 96
WIRE 144 96 144 -128
WIRE 144 96 128 96
WIRE 160 96 160 -64
WIRE 160 96 144 96
WIRE 208 96 160 96
WIRE 416 112 416 -64
WIRE 416 112 272 112
WIRE 480 112 416 112
WIRE 496 112 480 112
WIRE 208 128 160 128
WIRE -16 144 -16 96
WIRE -416 192 -416 176
WIRE -416 224 -416 192
WIRE -416 240 -416 224
WIRE -16 256 -16 224
WIRE 16 256 -16 256
WIRE 144 256 144 96
WIRE 144 256 96 256
WIRE -16 304 -16 256
WIRE 160 304 160 128
WIRE -16 432 -16 384
FLAG -416 96 +VCC
FLAG 240 80 +VCC
FLAG 480 112 Vout
FLAG -320 48 0
FLAG -416 304 -VCC
FLAG 240 144 -VCC
FLAG -416 192 0
FLAG 160 304 0
FLAG -16 432 0
FLAG -16 -128 V1
FLAG -16 96 V2
FLAG -16 256 V3
SYMBOL LM741 240 48 R0
SYMATTR InstName U1
SYMBOL voltage -416 80 R0
WINDOW 123 0 0 Left 0
WINDOW 39 0 0 Left 0
SYMATTR InstName Vdc1
SYMATTR Value 15
SYMBOL voltage -416 208 R0
WINDOW 123 0 0 Left 0
WINDOW 39 0 0 Left 0
SYMATTR InstName Vdc2
SYMATTR Value 15
SYMBOL voltage -320 -64 R0
WINDOW 123 24 124 Left 2
WINDOW 39 0 0 Left 0
SYMATTR Value2 AC 100m 0
SYMATTR InstName VS
SYMATTR Value SINE(0 100m 1k)
SYMBOL res 144 80 R90
WINDOW 0 0 56 VBottom 2
WINDOW 3 32 56 VTop 2
SYMATTR InstName RS
SYMATTR Value 8.2k
SYMBOL res 304 -80 R90
WINDOW 0 0 56 VBottom 2
WINDOW 3 32 56 VTop 2
SYMATTR InstName RF
SYMATTR Value 8.2k
SYMBOL res -32 -112 R0
WINDOW 0 36 40 Left 2
WINDOW 3 36 76 Left 2
SYMATTR InstName R3
SYMATTR Value 1k
SYMBOL res -32 128 R0
WINDOW 0 36 40 Left 2
WINDOW 3 36 76 Left 2
SYMATTR InstName R2
SYMATTR Value 1k
SYMBOL res -32 288 R0
WINDOW 0 36 40 Left 2
WINDOW 3 36 76 Left 2
SYMATTR InstName R1
SYMATTR Value 1k
SYMBOL res 112 240 R90
WINDOW 0 0 56 VBottom 2
WINDOW 3 32 56 VTop 2
SYMATTR InstName R4
SYMATTR Value 8.2k
SYMBOL res 128 -144 R90
WINDOW 0 0 56 VBottom 2
WINDOW 3 32 56 VTop 2
SYMATTR InstName R5
SYMATTR Value 8.2k
TEXT 456 8 Left 2 !.ac list 1k
