Version 4
SHEET 1 880 680
SYMBOL LM741 224 112 R0
SYMATTR InstName U1
