Version 4
SHEET 1 880 680
WIRE 208 -64 160 -64
WIRE 416 -64 288 -64
WIRE 48 96 -16 96
WIRE 160 96 160 -64
WIRE 160 96 128 96
WIRE 208 96 160 96
WIRE 416 112 416 -64
WIRE 416 112 272 112
WIRE 480 112 416 112
WIRE 496 112 480 112
WIRE 208 128 160 128
WIRE -144 160 -144 144
WIRE -16 176 -16 96
WIRE 160 176 160 128
WIRE -144 192 -144 160
WIRE -144 208 -144 192
WIRE -16 208 -16 176
WIRE -16 336 -16 288
FLAG -144 64 +VCC
FLAG 240 80 +VCC
FLAG 160 176 0
FLAG 480 112 Vout
FLAG -16 336 0
FLAG -144 272 -VCC
FLAG 240 144 -VCC
FLAG -144 160 0
FLAG -16 176 VIN
SYMBOL LM741 240 48 R0
SYMATTR InstName U1
SYMBOL voltage -144 48 R0
WINDOW 123 0 0 Left 0
WINDOW 39 0 0 Left 0
SYMATTR InstName V1
SYMATTR Value 15
SYMBOL voltage -144 176 R0
WINDOW 123 0 0 Left 0
WINDOW 39 0 0 Left 0
SYMATTR InstName V2
SYMATTR Value 15
SYMBOL voltage -16 192 R0
WINDOW 123 24 124 Left 2
WINDOW 39 0 0 Left 0
SYMATTR Value2 AC 50m 0
SYMATTR InstName VS
SYMATTR Value SINE(0 50m 1k)
SYMBOL res 144 80 R90
WINDOW 0 0 56 VBottom 2
WINDOW 3 32 56 VTop 2
SYMATTR InstName R1
SYMATTR Value 1k
SYMBOL res 304 -80 R90
WINDOW 0 0 56 VBottom 2
WINDOW 3 32 56 VTop 2
SYMATTR InstName RF
SYMATTR Value 15k
TEXT 456 8 Left 2 !.ac list 1k
